24
Lattice="6.381821280722142 0.0 0.0 0.0 6.381821280722142 0.0 0.0 0.0 6.381821280722142" Properties=species:S:1:pos:R:3:spacegroup_kinds:I:1 spacegroup="P 1" unit_cell=conventional pbc="T T T"
O        0.00000000       0.06509458       0.00000000        0
H        5.84638648       5.86106466       0.53543481        1
H        0.53543481       5.86106466       5.84638648        2
O        3.19091064       3.25600522       0.00000000        3
H        2.65547583       2.67015402       0.53543481        4
H        3.72634545       2.67015402       5.84638648        5
O        3.19091064       6.31672670       3.19091064        6
H        3.72634545       0.52075662       3.72634545        7
H        2.65547583       0.52075662       2.65547583        8
O        0.00000000       3.12581606       3.19091064        9
H        0.53543481       3.71166726       3.72634545       10
H        5.84638648       3.71166726       2.65547583       11
O        1.66054990       1.59545532       1.59545532       12
H        1.07469870       2.13089013       2.13089013       13
H        1.07469870       1.06002051       1.06002051       14
O        4.85146054       4.78636596       1.59545532       15
H        4.26560934       4.25093116       1.06002051       16
H        4.26560934       5.32180077       2.13089013       17
O        4.72127138       1.59545532       4.78636596       18
H        5.30712258       2.13089013       4.25093116       19
H        5.30712258       1.06002051       5.32180077       20
O        1.53036074       4.78636596       4.78636596       21
H        2.11621194       5.32180077       4.25093116       22
H        2.11621194       4.25093116       5.32180077       23
